19
Properties=species:S:1:pos:R:3:Z:I:1 pbc="F F F"
O       0.33635476       0.14110817      -0.15865796        8 
C      -0.74433164       0.34564842       0.71573513        6 
C      -2.14183023       0.17049370      -0.01242841        6 
C      -2.25635818      -1.18436229       0.70996820        6 
C      -2.85864018      -2.18269952       1.74432933        6 
C      -1.25872340      -2.33150228       1.84054385        6 
C      -1.26891665      -2.32547342       0.29966136        6 
C      -1.21394353      -0.77169000       1.76901377        6 
O      -1.56953412      -0.03751617       2.91997392        8 
H       1.14860939       0.21585189       0.35342043        1 
H      -0.64652393       1.29686611       1.25229321        1 
H      -2.85065646       0.92704262       0.33136181        1 
H      -2.11140325       0.15897645      -1.10438138        1 
H      -3.38561797      -1.75300624       2.59946603        1 
H      -3.38889111      -3.06410596       1.37022731        1 
H      -0.72050870      -3.02409189       2.49878088        1 
H      -0.34924875      -2.03376441      -0.20191720        1 
H      -1.73961291      -3.18846728      -0.17789011        1 
H      -1.95338963      -0.63737308       3.56651117        1 
